gem5 Simulator System.  http://gem5.org
gem5 is copyrighted software; use the --copyright option for details.

gem5 compiled Apr 12 2025 07:33:05
gem5 started Apr 13 2025 06:00:25
gem5 executing on LAPTOP-UMA91TNL, pid 52927
command line: ./build/X86_MESI_Two_Level/gem5.opt --outdir=./dopp_outputs/cc ./configs/example/se.py --num-cpus=1 --mem-size=4GB --caches --l2cache --cpu-type=DerivO3CPU --threat_model=Spectre --needsTSO=1 --STT=1 --implicit_channel=1 --moreTransmitInsts=0 --ifPrintROB=0 --DOPP=1 -c ../gapbs/cc -o '-g 14 -n 4'

info: Standard input is not a terminal, disabling listeners.
**********
info: Configure for DerivO3CPU. needsTSO=1; threat_model=Spectre; STT=1; DOPP=1; implicit_channel=1; moreTransmitInsts=0, printROB=0
**********
DOPP is set
Global frequency set at 1000000000000 ticks per second
Info: simulation uses threatModel: Spectre; needsTSO=1
applySTT = 1, implicit_channel = 1, ifPrintROB = 0, moreTransmitInsts = 0
**** REAL SIMULATION ****
Generate Time:       0.09841
Build Time:          0.01261
Graph has 16383 nodes and 212924 undirected edges for degree: 12
Trial Time:          0.00167
Trial Time:          0.00133
Trial Time:          0.00133
Trial Time:          0.00133
Average Time:        0.00141
Exiting @ tick 151672603500 because exiting with last active thread context
