
---------- Begin Simulation Statistics ----------
sim_seconds                                  0.000367                       # Number of seconds simulated
sim_ticks                                   366689500                       # Number of ticks simulated
final_tick                                  366689500                       # Number of ticks from beginning of simulation (restored from checkpoints and never reset)
sim_freq                                 1000000000000                       # Frequency of simulated ticks
host_inst_rate                                  77177                       # Simulator instruction rate (inst/s)
host_op_rate                                   132988                       # Simulator op (including micro ops) rate (op/s)
host_tick_rate                               69305163                       # Simulator tick rate (ticks/s)
host_mem_usage                                4334252                       # Number of bytes of host memory used
host_seconds                                     5.29                       # Real time elapsed on the host
sim_insts                                      408314                       # Number of instructions simulated
sim_ops                                        703609                       # Number of ops (including micro ops) simulated
system.voltage_domain.voltage                       1                       # Voltage in Volts
system.clk_domain.clock                          1000                       # Clock period in ticks
system.mem_ctrls.pwrStateResidencyTicks::UNDEFINED    366689500                       # Cumulative time (in ticks) in various power states
system.mem_ctrls.bytes_read::cpu.inst          126336                       # Number of bytes read from this memory
system.mem_ctrls.bytes_read::cpu.data           57024                       # Number of bytes read from this memory
system.mem_ctrls.bytes_read::total             183360                       # Number of bytes read from this memory
system.mem_ctrls.bytes_inst_read::cpu.inst       126336                       # Number of instructions bytes read from this memory
system.mem_ctrls.bytes_inst_read::total        126336                       # Number of instructions bytes read from this memory
system.mem_ctrls.num_reads::cpu.inst             1974                       # Number of read requests responded to by this memory
system.mem_ctrls.num_reads::cpu.data              891                       # Number of read requests responded to by this memory
system.mem_ctrls.num_reads::total                2865                       # Number of read requests responded to by this memory
system.mem_ctrls.bw_read::cpu.inst          344531272                       # Total read bandwidth from this memory (bytes/s)
system.mem_ctrls.bw_read::cpu.data          155510316                       # Total read bandwidth from this memory (bytes/s)
system.mem_ctrls.bw_read::total             500041588                       # Total read bandwidth from this memory (bytes/s)
system.mem_ctrls.bw_inst_read::cpu.inst     344531272                       # Instruction read bandwidth from this memory (bytes/s)
system.mem_ctrls.bw_inst_read::total        344531272                       # Instruction read bandwidth from this memory (bytes/s)
system.mem_ctrls.bw_total::cpu.inst         344531272                       # Total bandwidth to/from this memory (bytes/s)
system.mem_ctrls.bw_total::cpu.data         155510316                       # Total bandwidth to/from this memory (bytes/s)
system.mem_ctrls.bw_total::total            500041588                       # Total bandwidth to/from this memory (bytes/s)
system.mem_ctrls.readReqs                        2865                       # Number of read requests accepted
system.mem_ctrls.writeReqs                          0                       # Number of write requests accepted
system.mem_ctrls.readBursts                      2865                       # Number of DRAM read bursts, including those serviced by the write queue
system.mem_ctrls.writeBursts                        0                       # Number of DRAM write bursts, including those merged in the write queue
system.mem_ctrls.bytesReadDRAM                 183360                       # Total number of bytes read from DRAM
system.mem_ctrls.bytesReadWrQ                       0                       # Total number of bytes read from write queue
system.mem_ctrls.bytesWritten                       0                       # Total number of bytes written to DRAM
system.mem_ctrls.bytesReadSys                  183360                       # Total read bytes from the system interface side
system.mem_ctrls.bytesWrittenSys                    0                       # Total written bytes from the system interface side
system.mem_ctrls.servicedByWrQ                      0                       # Number of DRAM read bursts serviced by the write queue
system.mem_ctrls.mergedWrBursts                     0                       # Number of DRAM write bursts merged with an existing one
system.mem_ctrls.neitherReadNorWriteReqs            0                       # Number of requests that are neither read nor write
system.mem_ctrls.perBankRdBursts::0               111                       # Per bank write bursts
system.mem_ctrls.perBankRdBursts::1                92                       # Per bank write bursts
system.mem_ctrls.perBankRdBursts::2               119                       # Per bank write bursts
system.mem_ctrls.perBankRdBursts::3                75                       # Per bank write bursts
system.mem_ctrls.perBankRdBursts::4               204                       # Per bank write bursts
system.mem_ctrls.perBankRdBursts::5               106                       # Per bank write bursts
system.mem_ctrls.perBankRdBursts::6                76                       # Per bank write bursts
system.mem_ctrls.perBankRdBursts::7               198                       # Per bank write bursts
system.mem_ctrls.perBankRdBursts::8               266                       # Per bank write bursts
system.mem_ctrls.perBankRdBursts::9               214                       # Per bank write bursts
system.mem_ctrls.perBankRdBursts::10              166                       # Per bank write bursts
system.mem_ctrls.perBankRdBursts::11              226                       # Per bank write bursts
system.mem_ctrls.perBankRdBursts::12              323                       # Per bank write bursts
system.mem_ctrls.perBankRdBursts::13              196                       # Per bank write bursts
system.mem_ctrls.perBankRdBursts::14              282                       # Per bank write bursts
system.mem_ctrls.perBankRdBursts::15              211                       # Per bank write bursts
system.mem_ctrls.perBankWrBursts::0                 0                       # Per bank write bursts
system.mem_ctrls.perBankWrBursts::1                 0                       # Per bank write bursts
system.mem_ctrls.perBankWrBursts::2                 0                       # Per bank write bursts
system.mem_ctrls.perBankWrBursts::3                 0                       # Per bank write bursts
system.mem_ctrls.perBankWrBursts::4                 0                       # Per bank write bursts
system.mem_ctrls.perBankWrBursts::5                 0                       # Per bank write bursts
system.mem_ctrls.perBankWrBursts::6                 0                       # Per bank write bursts
system.mem_ctrls.perBankWrBursts::7                 0                       # Per bank write bursts
system.mem_ctrls.perBankWrBursts::8                 0                       # Per bank write bursts
system.mem_ctrls.perBankWrBursts::9                 0                       # Per bank write bursts
system.mem_ctrls.perBankWrBursts::10                0                       # Per bank write bursts
system.mem_ctrls.perBankWrBursts::11                0                       # Per bank write bursts
system.mem_ctrls.perBankWrBursts::12                0                       # Per bank write bursts
system.mem_ctrls.perBankWrBursts::13                0                       # Per bank write bursts
system.mem_ctrls.perBankWrBursts::14                0                       # Per bank write bursts
system.mem_ctrls.perBankWrBursts::15                0                       # Per bank write bursts
system.mem_ctrls.numRdRetry                         0                       # Number of times read queue was full causing retry
system.mem_ctrls.numWrRetry                         0                       # Number of times write queue was full causing retry
system.mem_ctrls.totGap                     366605000                       # Total gap between requests
system.mem_ctrls.readPktSize::0                     0                       # Read request sizes (log2)
system.mem_ctrls.readPktSize::1                     0                       # Read request sizes (log2)
system.mem_ctrls.readPktSize::2                     0                       # Read request sizes (log2)
system.mem_ctrls.readPktSize::3                     0                       # Read request sizes (log2)
system.mem_ctrls.readPktSize::4                     0                       # Read request sizes (log2)
system.mem_ctrls.readPktSize::5                     0                       # Read request sizes (log2)
system.mem_ctrls.readPktSize::6                  2865                       # Read request sizes (log2)
system.mem_ctrls.writePktSize::0                    0                       # Write request sizes (log2)
system.mem_ctrls.writePktSize::1                    0                       # Write request sizes (log2)
system.mem_ctrls.writePktSize::2                    0                       # Write request sizes (log2)
system.mem_ctrls.writePktSize::3                    0                       # Write request sizes (log2)
system.mem_ctrls.writePktSize::4                    0                       # Write request sizes (log2)
system.mem_ctrls.writePktSize::5                    0                       # Write request sizes (log2)
system.mem_ctrls.writePktSize::6                    0                       # Write request sizes (log2)
system.mem_ctrls.rdQLenPdf::0                    1919                       # What read queue length does an incoming req see
system.mem_ctrls.rdQLenPdf::1                     721                       # What read queue length does an incoming req see
system.mem_ctrls.rdQLenPdf::2                     185                       # What read queue length does an incoming req see
system.mem_ctrls.rdQLenPdf::3                      33                       # What read queue length does an incoming req see
system.mem_ctrls.rdQLenPdf::4                       7                       # What read queue length does an incoming req see
system.mem_ctrls.rdQLenPdf::5                       0                       # What read queue length does an incoming req see
system.mem_ctrls.rdQLenPdf::6                       0                       # What read queue length does an incoming req see
system.mem_ctrls.rdQLenPdf::7                       0                       # What read queue length does an incoming req see
system.mem_ctrls.rdQLenPdf::8                       0                       # What read queue length does an incoming req see
system.mem_ctrls.rdQLenPdf::9                       0                       # What read queue length does an incoming req see
system.mem_ctrls.rdQLenPdf::10                      0                       # What read queue length does an incoming req see
system.mem_ctrls.rdQLenPdf::11                      0                       # What read queue length does an incoming req see
system.mem_ctrls.rdQLenPdf::12                      0                       # What read queue length does an incoming req see
system.mem_ctrls.rdQLenPdf::13                      0                       # What read queue length does an incoming req see
system.mem_ctrls.rdQLenPdf::14                      0                       # What read queue length does an incoming req see
system.mem_ctrls.rdQLenPdf::15                      0                       # What read queue length does an incoming req see
system.mem_ctrls.rdQLenPdf::16                      0                       # What read queue length does an incoming req see
system.mem_ctrls.rdQLenPdf::17                      0                       # What read queue length does an incoming req see
system.mem_ctrls.rdQLenPdf::18                      0                       # What read queue length does an incoming req see
system.mem_ctrls.rdQLenPdf::19                      0                       # What read queue length does an incoming req see
system.mem_ctrls.rdQLenPdf::20                      0                       # What read queue length does an incoming req see
system.mem_ctrls.rdQLenPdf::21                      0                       # What read queue length does an incoming req see
system.mem_ctrls.rdQLenPdf::22                      0                       # What read queue length does an incoming req see
system.mem_ctrls.rdQLenPdf::23                      0                       # What read queue length does an incoming req see
system.mem_ctrls.rdQLenPdf::24                      0                       # What read queue length does an incoming req see
system.mem_ctrls.rdQLenPdf::25                      0                       # What read queue length does an incoming req see
system.mem_ctrls.rdQLenPdf::26                      0                       # What read queue length does an incoming req see
system.mem_ctrls.rdQLenPdf::27                      0                       # What read queue length does an incoming req see
system.mem_ctrls.rdQLenPdf::28                      0                       # What read queue length does an incoming req see
system.mem_ctrls.rdQLenPdf::29                      0                       # What read queue length does an incoming req see
system.mem_ctrls.rdQLenPdf::30                      0                       # What read queue length does an incoming req see
system.mem_ctrls.rdQLenPdf::31                      0                       # What read queue length does an incoming req see
system.mem_ctrls.wrQLenPdf::0                       0                       # What write queue length does an incoming req see
system.mem_ctrls.wrQLenPdf::1                       0                       # What write queue length does an incoming req see
system.mem_ctrls.wrQLenPdf::2                       0                       # What write queue length does an incoming req see
system.mem_ctrls.wrQLenPdf::3                       0                       # What write queue length does an incoming req see
system.mem_ctrls.wrQLenPdf::4                       0                       # What write queue length does an incoming req see
system.mem_ctrls.wrQLenPdf::5                       0                       # What write queue length does an incoming req see
system.mem_ctrls.wrQLenPdf::6                       0                       # What write queue length does an incoming req see
system.mem_ctrls.wrQLenPdf::7                       0                       # What write queue length does an incoming req see
system.mem_ctrls.wrQLenPdf::8                       0                       # What write queue length does an incoming req see
system.mem_ctrls.wrQLenPdf::9                       0                       # What write queue length does an incoming req see
system.mem_ctrls.wrQLenPdf::10                      0                       # What write queue length does an incoming req see
system.mem_ctrls.wrQLenPdf::11                      0                       # What write queue length does an incoming req see
system.mem_ctrls.wrQLenPdf::12                      0                       # What write queue length does an incoming req see
system.mem_ctrls.wrQLenPdf::13                      0                       # What write queue length does an incoming req see
system.mem_ctrls.wrQLenPdf::14                      0                       # What write queue length does an incoming req see
system.mem_ctrls.wrQLenPdf::15                      0                       # What write queue length does an incoming req see
system.mem_ctrls.wrQLenPdf::16                      0                       # What write queue length does an incoming req see
system.mem_ctrls.wrQLenPdf::17                      0                       # What write queue length does an incoming req see
system.mem_ctrls.wrQLenPdf::18                      0                       # What write queue length does an incoming req see
system.mem_ctrls.wrQLenPdf::19                      0                       # What write queue length does an incoming req see
system.mem_ctrls.wrQLenPdf::20                      0                       # What write queue length does an incoming req see
system.mem_ctrls.wrQLenPdf::21                      0                       # What write queue length does an incoming req see
system.mem_ctrls.wrQLenPdf::22                      0                       # What write queue length does an incoming req see
system.mem_ctrls.wrQLenPdf::23                      0                       # What write queue length does an incoming req see
system.mem_ctrls.wrQLenPdf::24                      0                       # What write queue length does an incoming req see
system.mem_ctrls.wrQLenPdf::25                      0                       # What write queue length does an incoming req see
system.mem_ctrls.wrQLenPdf::26                      0                       # What write queue length does an incoming req see
system.mem_ctrls.wrQLenPdf::27                      0                       # What write queue length does an incoming req see
system.mem_ctrls.wrQLenPdf::28                      0                       # What write queue length does an incoming req see
system.mem_ctrls.wrQLenPdf::29                      0                       # What write queue length does an incoming req see
system.mem_ctrls.wrQLenPdf::30                      0                       # What write queue length does an incoming req see
system.mem_ctrls.wrQLenPdf::31                      0                       # What write queue length does an incoming req see
system.mem_ctrls.wrQLenPdf::32                      0                       # What write queue length does an incoming req see
system.mem_ctrls.wrQLenPdf::33                      0                       # What write queue length does an incoming req see
system.mem_ctrls.wrQLenPdf::34                      0                       # What write queue length does an incoming req see
system.mem_ctrls.wrQLenPdf::35                      0                       # What write queue length does an incoming req see
system.mem_ctrls.wrQLenPdf::36                      0                       # What write queue length does an incoming req see
system.mem_ctrls.wrQLenPdf::37                      0                       # What write queue length does an incoming req see
system.mem_ctrls.wrQLenPdf::38                      0                       # What write queue length does an incoming req see
system.mem_ctrls.wrQLenPdf::39                      0                       # What write queue length does an incoming req see
system.mem_ctrls.wrQLenPdf::40                      0                       # What write queue length does an incoming req see
system.mem_ctrls.wrQLenPdf::41                      0                       # What write queue length does an incoming req see
system.mem_ctrls.wrQLenPdf::42                      0                       # What write queue length does an incoming req see
system.mem_ctrls.wrQLenPdf::43                      0                       # What write queue length does an incoming req see
system.mem_ctrls.wrQLenPdf::44                      0                       # What write queue length does an incoming req see
system.mem_ctrls.wrQLenPdf::45                      0                       # What write queue length does an incoming req see
system.mem_ctrls.wrQLenPdf::46                      0                       # What write queue length does an incoming req see
system.mem_ctrls.wrQLenPdf::47                      0                       # What write queue length does an incoming req see
system.mem_ctrls.wrQLenPdf::48                      0                       # What write queue length does an incoming req see
system.mem_ctrls.wrQLenPdf::49                      0                       # What write queue length does an incoming req see
system.mem_ctrls.wrQLenPdf::50                      0                       # What write queue length does an incoming req see
system.mem_ctrls.wrQLenPdf::51                      0                       # What write queue length does an incoming req see
system.mem_ctrls.wrQLenPdf::52                      0                       # What write queue length does an incoming req see
system.mem_ctrls.wrQLenPdf::53                      0                       # What write queue length does an incoming req see
system.mem_ctrls.wrQLenPdf::54                      0                       # What write queue length does an incoming req see
system.mem_ctrls.wrQLenPdf::55                      0                       # What write queue length does an incoming req see
system.mem_ctrls.wrQLenPdf::56                      0                       # What write queue length does an incoming req see
system.mem_ctrls.wrQLenPdf::57                      0                       # What write queue length does an incoming req see
system.mem_ctrls.wrQLenPdf::58                      0                       # What write queue length does an incoming req see
system.mem_ctrls.wrQLenPdf::59                      0                       # What write queue length does an incoming req see
system.mem_ctrls.wrQLenPdf::60                      0                       # What write queue length does an incoming req see
system.mem_ctrls.wrQLenPdf::61                      0                       # What write queue length does an incoming req see
system.mem_ctrls.wrQLenPdf::62                      0                       # What write queue length does an incoming req see
system.mem_ctrls.wrQLenPdf::63                      0                       # What write queue length does an incoming req see
system.mem_ctrls.bytesPerActivate::samples          692                       # Bytes accessed per row activation
system.mem_ctrls.bytesPerActivate::mean    261.734104                       # Bytes accessed per row activation
system.mem_ctrls.bytesPerActivate::gmean   162.305111                       # Bytes accessed per row activation
system.mem_ctrls.bytesPerActivate::stdev   283.683440                       # Bytes accessed per row activation
system.mem_ctrls.bytesPerActivate::0-127          271     39.16%     39.16% # Bytes accessed per row activation
system.mem_ctrls.bytesPerActivate::128-255          187     27.02%     66.18% # Bytes accessed per row activation
system.mem_ctrls.bytesPerActivate::256-383           75     10.84%     77.02% # Bytes accessed per row activation
system.mem_ctrls.bytesPerActivate::384-511           42      6.07%     83.09% # Bytes accessed per row activation
system.mem_ctrls.bytesPerActivate::512-639           24      3.47%     86.56% # Bytes accessed per row activation
system.mem_ctrls.bytesPerActivate::640-767           21      3.03%     89.60% # Bytes accessed per row activation
system.mem_ctrls.bytesPerActivate::768-895           16      2.31%     91.91% # Bytes accessed per row activation
system.mem_ctrls.bytesPerActivate::896-1023           12      1.73%     93.64% # Bytes accessed per row activation
system.mem_ctrls.bytesPerActivate::1024-1151           44      6.36%    100.00% # Bytes accessed per row activation
system.mem_ctrls.bytesPerActivate::total          692                       # Bytes accessed per row activation
system.mem_ctrls.totQLat                     46398750                       # Total ticks spent queuing
system.mem_ctrls.totMemAccLat               100117500                       # Total ticks spent from burst creation until serviced by the DRAM
system.mem_ctrls.totBusLat                   14325000                       # Total ticks spent in databus transfers
system.mem_ctrls.avgQLat                     16195.03                       # Average queueing delay per DRAM burst
system.mem_ctrls.avgBusLat                    5000.00                       # Average bus latency per DRAM burst
system.mem_ctrls.avgMemAccLat                34945.03                       # Average memory access latency per DRAM burst
system.mem_ctrls.avgRdBW                       500.04                       # Average DRAM read bandwidth in MiByte/s
system.mem_ctrls.avgWrBW                         0.00                       # Average achieved write bandwidth in MiByte/s
system.mem_ctrls.avgRdBWSys                    500.04                       # Average system read bandwidth in MiByte/s
system.mem_ctrls.avgWrBWSys                      0.00                       # Average system write bandwidth in MiByte/s
system.mem_ctrls.peakBW                      12800.00                       # Theoretical peak bandwidth in MiByte/s
system.mem_ctrls.busUtil                         3.91                       # Data bus utilization in percentage
system.mem_ctrls.busUtilRead                     3.91                       # Data bus utilization in percentage for reads
system.mem_ctrls.busUtilWrite                    0.00                       # Data bus utilization in percentage for writes
system.mem_ctrls.avgRdQLen                       1.28                       # Average read queue length when enqueuing
system.mem_ctrls.avgWrQLen                       0.00                       # Average write queue length when enqueuing
system.mem_ctrls.readRowHits                     2160                       # Number of row buffer hits during reads
system.mem_ctrls.writeRowHits                       0                       # Number of row buffer hits during writes
system.mem_ctrls.readRowHitRate                 75.39                       # Row buffer hit rate for reads
system.mem_ctrls.writeRowHitRate                  nan                       # Row buffer hit rate for writes
system.mem_ctrls.avgGap                     127959.86                       # Average gap between requests
system.mem_ctrls.pageHitRate                    75.39                       # Row buffer hit rate, read and write combined
system.mem_ctrls_0.actEnergy                  1813560                       # Energy for activate commands per rank (pJ)
system.mem_ctrls_0.preEnergy                   941160                       # Energy for precharge commands per rank (pJ)
system.mem_ctrls_0.readEnergy                 7004340                       # Energy for read commands per rank (pJ)
system.mem_ctrls_0.writeEnergy                      0                       # Energy for write commands per rank (pJ)
system.mem_ctrls_0.refreshEnergy         24585600.000000                       # Energy for refresh commands per rank (pJ)
system.mem_ctrls_0.actBackEnergy             16404030                       # Energy for active background per rank (pJ)
system.mem_ctrls_0.preBackEnergy               804480                       # Energy for precharge background per rank (pJ)
system.mem_ctrls_0.actPowerDownEnergy        95376390                       # Energy for active power-down per rank (pJ)
system.mem_ctrls_0.prePowerDownEnergy        18958080                       # Energy for precharge power-down per rank (pJ)
system.mem_ctrls_0.selfRefreshEnergy         18478920                       # Energy for self refresh per rank (pJ)
system.mem_ctrls_0.totalEnergy              184366560                       # Total energy per rank (pJ)
system.mem_ctrls_0.averagePower            502.786581                       # Core power per rank (mW)
system.mem_ctrls_0.totalIdleTime            328567750                       # Total Idle time Per DRAM Rank
system.mem_ctrls_0.memoryStateTime::IDLE      1001500                       # Time in different power states
system.mem_ctrls_0.memoryStateTime::REF      10418000                       # Time in different power states
system.mem_ctrls_0.memoryStateTime::SREF     70091250                       # Time in different power states
system.mem_ctrls_0.memoryStateTime::PRE_PDN     49366500                       # Time in different power states
system.mem_ctrls_0.memoryStateTime::ACT      26654000                       # Time in different power states
system.mem_ctrls_0.memoryStateTime::ACT_PDN    209158250                       # Time in different power states
system.mem_ctrls_1.actEnergy                  3220140                       # Energy for activate commands per rank (pJ)
system.mem_ctrls_1.preEnergy                  1684980                       # Energy for precharge commands per rank (pJ)
system.mem_ctrls_1.readEnergy                13451760                       # Energy for read commands per rank (pJ)
system.mem_ctrls_1.writeEnergy                      0                       # Energy for write commands per rank (pJ)
system.mem_ctrls_1.refreshEnergy         26429520.000000                       # Energy for refresh commands per rank (pJ)
system.mem_ctrls_1.actBackEnergy             26542620                       # Energy for active background per rank (pJ)
system.mem_ctrls_1.preBackEnergy               792480                       # Energy for precharge background per rank (pJ)
system.mem_ctrls_1.actPowerDownEnergy       102673530                       # Energy for active power-down per rank (pJ)
system.mem_ctrls_1.prePowerDownEnergy        15305760                       # Energy for precharge power-down per rank (pJ)
system.mem_ctrls_1.selfRefreshEnergy         11040180                       # Energy for self refresh per rank (pJ)
system.mem_ctrls_1.totalEnergy              201140970                       # Total energy per rank (pJ)
system.mem_ctrls_1.averagePower            548.532123                       # Core power per rank (mW)
system.mem_ctrls_1.totalIdleTime            306226500                       # Total Idle time Per DRAM Rank
system.mem_ctrls_1.memoryStateTime::IDLE       841000                       # Time in different power states
system.mem_ctrls_1.memoryStateTime::REF      11192000                       # Time in different power states
system.mem_ctrls_1.memoryStateTime::SREF     41397250                       # Time in different power states
system.mem_ctrls_1.memoryStateTime::PRE_PDN     39856000                       # Time in different power states
system.mem_ctrls_1.memoryStateTime::ACT      48256250                       # Time in different power states
system.mem_ctrls_1.memoryStateTime::ACT_PDN    225147000                       # Time in different power states
system.pwrStateResidencyTicks::UNDEFINED    366689500                       # Cumulative time (in ticks) in various power states
system.cpu.branchPred.lookups                  188309                       # Number of BP lookups
system.cpu.branchPred.condPredicted            188309                       # Number of conditional branches predicted
system.cpu.branchPred.condIncorrect             19391                       # Number of conditional branches incorrect
system.cpu.branchPred.BTBLookups               157498                       # Number of BTB lookups
system.cpu.branchPred.BTBHits                       0                       # Number of BTB hits
system.cpu.branchPred.BTBCorrect                    0                       # Number of correct BTB predictions (this stat may not work properly.
system.cpu.branchPred.BTBHitPct              0.000000                       # BTB Hit Percentage
system.cpu.branchPred.usedRAS                   11366                       # Number of times the RAS was used to get a target.
system.cpu.branchPred.RASInCorrect               1521                       # Number of incorrect RAS predictions.
system.cpu.branchPred.indirectLookups          157498                       # Number of indirect predictor lookups.
system.cpu.branchPred.indirectHits              65026                       # Number of indirect target hits.
system.cpu.branchPred.indirectMisses            92472                       # Number of indirect misses.
system.cpu.branchPredindirectMispredicted        11548                       # Number of mispredicted indirect branches.
system.cpu_voltage_domain.voltage                   1                       # Voltage in Volts
system.cpu_clk_domain.clock                       500                       # Clock period in ticks
system.cpu.dtb.walker.pwrStateResidencyTicks::UNDEFINED    366689500                       # Cumulative time (in ticks) in various power states
system.cpu.dtb.rdAccesses                      123974                       # TLB accesses on read requests
system.cpu.dtb.wrAccesses                       62464                       # TLB accesses on write requests
system.cpu.dtb.rdMisses                          1157                       # TLB misses on read requests
system.cpu.dtb.wrMisses                           370                       # TLB misses on write requests
system.cpu.dtb.spec_tlb_misses                      0                       # TLB misses on speculative memory requests
system.cpu.apic_clk_domain.clock                 8000                       # Clock period in ticks
system.cpu.interrupts.pwrStateResidencyTicks::UNDEFINED    366689500                       # Cumulative time (in ticks) in various power states
system.cpu.itb.walker.pwrStateResidencyTicks::UNDEFINED    366689500                       # Cumulative time (in ticks) in various power states
system.cpu.itb.rdAccesses                           0                       # TLB accesses on read requests
system.cpu.itb.wrAccesses                      115545                       # TLB accesses on write requests
system.cpu.itb.rdMisses                             0                       # TLB misses on read requests
system.cpu.itb.wrMisses                           464                       # TLB misses on write requests
system.cpu.itb.spec_tlb_misses                      0                       # TLB misses on speculative memory requests
system.cpu.workload.numSyscalls                    72                       # Number of system calls
system.cpu.pwrStateResidencyTicks::ON       366689500                       # Cumulative time (in ticks) in various power states
system.cpu.numCycles                           733380                       # number of cpu cycles simulated
system.cpu.numWorkItemsStarted                      0                       # number of work items this cpu started
system.cpu.numWorkItemsCompleted                    0                       # number of work items this cpu completed
system.cpu.fetch.icacheStallCycles             201117                       # Number of cycles fetch is stalled on an Icache miss
system.cpu.fetch.Insts                        1031810                       # Number of instructions fetch has processed
system.cpu.fetch.Branches                      188309                       # Number of branches that fetch encountered
system.cpu.fetch.predictedBranches              76392                       # Number of branches that fetch has predicted taken
system.cpu.fetch.Cycles                        372683                       # Number of cycles fetch has run and was not squashing or blocked
system.cpu.fetch.SquashCycles                   39480                       # Number of cycles fetch has spent squashing
system.cpu.fetch.MiscStallCycles                  268                       # Number of cycles fetch has spent waiting on interrupts, or bad addresses, or out of MSHRs
system.cpu.fetch.PendingTrapStallCycles          1756                       # Number of stall cycles due to pending traps
system.cpu.fetch.PendingQuiesceStallCycles            7                       # Number of stall cycles due to pending quiesce instructions
system.cpu.fetch.IcacheWaitRetryStallCycles          170                       # Number of stall cycles due to full MSHR
system.cpu.fetch.CacheLines                    115228                       # Number of cache lines fetched
system.cpu.fetch.IcacheSquashes                  6470                       # Number of outstanding Icache misses that were squashed
system.cpu.fetch.rateDist::samples             595741                       # Number of instructions fetched each cycle (Total)
system.cpu.fetch.rateDist::mean              2.946982                       # Number of instructions fetched each cycle (Total)
system.cpu.fetch.rateDist::stdev             3.540421                       # Number of instructions fetched each cycle (Total)
system.cpu.fetch.rateDist::underflows               0      0.00%      0.00% # Number of instructions fetched each cycle (Total)
system.cpu.fetch.rateDist::0                   316805     53.18%     53.18% # Number of instructions fetched each cycle (Total)
system.cpu.fetch.rateDist::1                    19185      3.22%     56.40% # Number of instructions fetched each cycle (Total)
system.cpu.fetch.rateDist::2                    15994      2.68%     59.08% # Number of instructions fetched each cycle (Total)
system.cpu.fetch.rateDist::3                    14042      2.36%     61.44% # Number of instructions fetched each cycle (Total)
system.cpu.fetch.rateDist::4                    20343      3.41%     64.86% # Number of instructions fetched each cycle (Total)
system.cpu.fetch.rateDist::5                    14616      2.45%     67.31% # Number of instructions fetched each cycle (Total)
system.cpu.fetch.rateDist::6                    14395      2.42%     69.72% # Number of instructions fetched each cycle (Total)
system.cpu.fetch.rateDist::7                    21371      3.59%     73.31% # Number of instructions fetched each cycle (Total)
system.cpu.fetch.rateDist::8                   158990     26.69%    100.00% # Number of instructions fetched each cycle (Total)
system.cpu.fetch.rateDist::overflows                0      0.00%    100.00% # Number of instructions fetched each cycle (Total)
system.cpu.fetch.rateDist::min_value                0                       # Number of instructions fetched each cycle (Total)
system.cpu.fetch.rateDist::max_value                8                       # Number of instructions fetched each cycle (Total)
system.cpu.fetch.rateDist::total               595741                       # Number of instructions fetched each cycle (Total)
system.cpu.fetch.branchRate                  0.256769                       # Number of branch fetches per cycle
system.cpu.fetch.rate                        1.406924                       # Number of inst fetches per cycle
system.cpu.decode.IdleCycles                   169418                       # Number of cycles decode is idle
system.cpu.decode.BlockedCycles                169058                       # Number of cycles decode is blocked
system.cpu.decode.RunCycles                    208687                       # Number of cycles decode is running
system.cpu.decode.UnblockCycles                 28838                       # Number of cycles decode is unblocking
system.cpu.decode.SquashCycles                  19740                       # Number of cycles decode is squashing
system.cpu.decode.DecodedInsts                1639680                       # Number of instructions handled by decode
system.cpu.rename.SquashCycles                  19740                       # Number of cycles rename is squashing
system.cpu.rename.IdleCycles                   185981                       # Number of cycles rename is idle
system.cpu.rename.BlockCycles                   97362                       # Number of cycles rename is blocking
system.cpu.rename.serializeStallCycles           2683                       # count of cycles rename stalled for serializing inst
system.cpu.rename.RunCycles                    217947                       # Number of cycles rename is running
system.cpu.rename.UnblockCycles                 72028                       # Number of cycles rename is unblocking
system.cpu.rename.RenamedInsts                1557766                       # Number of instructions processed by rename
system.cpu.rename.ROBFullEvents                   640                       # Number of times rename has blocked due to ROB full
system.cpu.rename.IQFullEvents                  24204                       # Number of times rename has blocked due to IQ full
system.cpu.rename.LQFullEvents                   2257                       # Number of times rename has blocked due to LQ full
system.cpu.rename.SQFullEvents                  41794                       # Number of times rename has blocked due to SQ full
system.cpu.rename.FullRegisterEvents               14                       # Number of times there has been no free registers
system.cpu.rename.RenamedOperands             1983181                       # Number of destination operands rename has renamed
system.cpu.rename.RenameLookups               3734033                       # Number of register rename lookups that rename has made
system.cpu.rename.int_rename_lookups          2285877                       # Number of integer rename lookups
system.cpu.rename.fp_rename_lookups             25607                       # Number of floating rename lookups
system.cpu.rename.CommittedMaps                909880                       # Number of HB maps that are committed
system.cpu.rename.UndoneMaps                  1073301                       # Number of HB maps that are undone due to squashing
system.cpu.rename.serializingInsts                180                       # count of serializing insts renamed
system.cpu.rename.tempSerializingInsts            182                       # count of temporary serializing insts renamed
system.cpu.rename.skidInsts                     89102                       # count of insts added to the skid buffer
system.cpu.memDep0.insertedLoads               143261                       # Number of loads inserted to the mem dependence unit.
system.cpu.memDep0.insertedStores               85660                       # Number of stores inserted to the mem dependence unit.
system.cpu.memDep0.conflictingLoads             14057                       # Number of conflicting loads.
system.cpu.memDep0.conflictingStores             7990                       # Number of conflicting stores.
system.cpu.iq.iqInstsAdded                    1389926                       # Number of instructions added to the IQ (excludes non-spec)
system.cpu.iq.iqNonSpecInstsAdded                 636                       # Number of non-speculative instructions added to the IQ
system.cpu.iq.iqInstsIssued                   1165771                       # Number of instructions issued
system.cpu.iq.iqSquashedInstsIssued              7259                       # Number of squashed instructions issued
system.cpu.iq.iqSquashedInstsExamined          686952                       # Number of squashed instructions iterated over during squash; mainly for profiling
system.cpu.iq.iqSquashedOperandsExamined       913730                       # Number of squashed operands that are examined and possibly removed from graph
system.cpu.iq.iqSquashedNonSpecRemoved            564                       # Number of squashed non-spec instructions that were removed
system.cpu.iq.issued_per_cycle::samples        595741                       # Number of insts issued each cycle
system.cpu.iq.issued_per_cycle::mean         1.956842                       # Number of insts issued each cycle
system.cpu.iq.issued_per_cycle::stdev        2.432138                       # Number of insts issued each cycle
system.cpu.iq.issued_per_cycle::underflows            0      0.00%      0.00% # Number of insts issued each cycle
system.cpu.iq.issued_per_cycle::0              295957     49.68%     49.68% # Number of insts issued each cycle
system.cpu.iq.issued_per_cycle::1               44786      7.52%     57.20% # Number of insts issued each cycle
system.cpu.iq.issued_per_cycle::2               52756      8.86%     66.05% # Number of insts issued each cycle
system.cpu.iq.issued_per_cycle::3               37936      6.37%     72.42% # Number of insts issued each cycle
system.cpu.iq.issued_per_cycle::4               46715      7.84%     80.26% # Number of insts issued each cycle
system.cpu.iq.issued_per_cycle::5               40659      6.82%     87.09% # Number of insts issued each cycle
system.cpu.iq.issued_per_cycle::6               39800      6.68%     93.77% # Number of insts issued each cycle
system.cpu.iq.issued_per_cycle::7               24346      4.09%     97.85% # Number of insts issued each cycle
system.cpu.iq.issued_per_cycle::8               12786      2.15%    100.00% # Number of insts issued each cycle
system.cpu.iq.issued_per_cycle::overflows            0      0.00%    100.00% # Number of insts issued each cycle
system.cpu.iq.issued_per_cycle::min_value            0                       # Number of insts issued each cycle
system.cpu.iq.issued_per_cycle::max_value            8                       # Number of insts issued each cycle
system.cpu.iq.issued_per_cycle::total          595741                       # Number of insts issued each cycle
system.cpu.iq.fu_full::No_OpClass                   0      0.00%      0.00% # attempts to use FU when none available
system.cpu.iq.fu_full::IntAlu                   13740     93.27%     93.27% # attempts to use FU when none available
system.cpu.iq.fu_full::IntMult                      0      0.00%     93.27% # attempts to use FU when none available
system.cpu.iq.fu_full::IntDiv                       0      0.00%     93.27% # attempts to use FU when none available
system.cpu.iq.fu_full::FloatAdd                   164      1.11%     94.38% # attempts to use FU when none available
system.cpu.iq.fu_full::FloatCmp                     0      0.00%     94.38% # attempts to use FU when none available
system.cpu.iq.fu_full::FloatCvt                     0      0.00%     94.38% # attempts to use FU when none available
system.cpu.iq.fu_full::FloatMult                    0      0.00%     94.38% # attempts to use FU when none available
system.cpu.iq.fu_full::FloatMultAcc                 0      0.00%     94.38% # attempts to use FU when none available
system.cpu.iq.fu_full::FloatDiv                     0      0.00%     94.38% # attempts to use FU when none available
system.cpu.iq.fu_full::FloatMisc                    0      0.00%     94.38% # attempts to use FU when none available
system.cpu.iq.fu_full::FloatSqrt                    0      0.00%     94.38% # attempts to use FU when none available
system.cpu.iq.fu_full::SimdAdd                      0      0.00%     94.38% # attempts to use FU when none available
system.cpu.iq.fu_full::SimdAddAcc                   0      0.00%     94.38% # attempts to use FU when none available
system.cpu.iq.fu_full::SimdAlu                      0      0.00%     94.38% # attempts to use FU when none available
system.cpu.iq.fu_full::SimdCmp                      0      0.00%     94.38% # attempts to use FU when none available
system.cpu.iq.fu_full::SimdCvt                      0      0.00%     94.38% # attempts to use FU when none available
system.cpu.iq.fu_full::SimdMisc                     0      0.00%     94.38% # attempts to use FU when none available
system.cpu.iq.fu_full::SimdMult                     0      0.00%     94.38% # attempts to use FU when none available
system.cpu.iq.fu_full::SimdMultAcc                  0      0.00%     94.38% # attempts to use FU when none available
system.cpu.iq.fu_full::SimdShift                    0      0.00%     94.38% # attempts to use FU when none available
system.cpu.iq.fu_full::SimdShiftAcc                 0      0.00%     94.38% # attempts to use FU when none available
system.cpu.iq.fu_full::SimdSqrt                     0      0.00%     94.38% # attempts to use FU when none available
system.cpu.iq.fu_full::SimdFloatAdd                 0      0.00%     94.38% # attempts to use FU when none available
system.cpu.iq.fu_full::SimdFloatAlu                 0      0.00%     94.38% # attempts to use FU when none available
system.cpu.iq.fu_full::SimdFloatCmp                 0      0.00%     94.38% # attempts to use FU when none available
system.cpu.iq.fu_full::SimdFloatCvt                 0      0.00%     94.38% # attempts to use FU when none available
system.cpu.iq.fu_full::SimdFloatDiv                 0      0.00%     94.38% # attempts to use FU when none available
system.cpu.iq.fu_full::SimdFloatMisc                0      0.00%     94.38% # attempts to use FU when none available
system.cpu.iq.fu_full::SimdFloatMult                0      0.00%     94.38% # attempts to use FU when none available
system.cpu.iq.fu_full::SimdFloatMultAcc             0      0.00%     94.38% # attempts to use FU when none available
system.cpu.iq.fu_full::SimdFloatSqrt                0      0.00%     94.38% # attempts to use FU when none available
system.cpu.iq.fu_full::MemRead                    262      1.78%     96.16% # attempts to use FU when none available
system.cpu.iq.fu_full::MemWrite                   179      1.22%     97.37% # attempts to use FU when none available
system.cpu.iq.fu_full::FloatMemRead               205      1.39%     98.76% # attempts to use FU when none available
system.cpu.iq.fu_full::FloatMemWrite              182      1.24%    100.00% # attempts to use FU when none available
system.cpu.iq.fu_full::IprAccess                    0      0.00%    100.00% # attempts to use FU when none available
system.cpu.iq.fu_full::InstPrefetch                 0      0.00%    100.00% # attempts to use FU when none available
system.cpu.iq.FU_type_0::No_OpClass             25518      2.19%      2.19% # Type of FU issued
system.cpu.iq.FU_type_0::IntAlu                931443     79.90%     82.09% # Type of FU issued
system.cpu.iq.FU_type_0::IntMult                 2710      0.23%     82.32% # Type of FU issued
system.cpu.iq.FU_type_0::IntDiv                   908      0.08%     82.40% # Type of FU issued
system.cpu.iq.FU_type_0::FloatAdd                8265      0.71%     83.11% # Type of FU issued
system.cpu.iq.FU_type_0::FloatCmp                   0      0.00%     83.11% # Type of FU issued
system.cpu.iq.FU_type_0::FloatCvt                  24      0.00%     83.11% # Type of FU issued
system.cpu.iq.FU_type_0::FloatMult                  0      0.00%     83.11% # Type of FU issued
system.cpu.iq.FU_type_0::FloatMultAcc               0      0.00%     83.11% # Type of FU issued
system.cpu.iq.FU_type_0::FloatDiv                   0      0.00%     83.11% # Type of FU issued
system.cpu.iq.FU_type_0::FloatMisc                  0      0.00%     83.11% # Type of FU issued
system.cpu.iq.FU_type_0::FloatSqrt                  0      0.00%     83.11% # Type of FU issued
system.cpu.iq.FU_type_0::SimdAdd                    0      0.00%     83.11% # Type of FU issued
system.cpu.iq.FU_type_0::SimdAddAcc                 0      0.00%     83.11% # Type of FU issued
system.cpu.iq.FU_type_0::SimdAlu                    0      0.00%     83.11% # Type of FU issued
system.cpu.iq.FU_type_0::SimdCmp                    0      0.00%     83.11% # Type of FU issued
system.cpu.iq.FU_type_0::SimdCvt                    0      0.00%     83.11% # Type of FU issued
system.cpu.iq.FU_type_0::SimdMisc                   0      0.00%     83.11% # Type of FU issued
system.cpu.iq.FU_type_0::SimdMult                   0      0.00%     83.11% # Type of FU issued
system.cpu.iq.FU_type_0::SimdMultAcc                0      0.00%     83.11% # Type of FU issued
system.cpu.iq.FU_type_0::SimdShift                  0      0.00%     83.11% # Type of FU issued
system.cpu.iq.FU_type_0::SimdShiftAcc               0      0.00%     83.11% # Type of FU issued
system.cpu.iq.FU_type_0::SimdSqrt                   0      0.00%     83.11% # Type of FU issued
system.cpu.iq.FU_type_0::SimdFloatAdd               0      0.00%     83.11% # Type of FU issued
system.cpu.iq.FU_type_0::SimdFloatAlu               0      0.00%     83.11% # Type of FU issued
system.cpu.iq.FU_type_0::SimdFloatCmp               0      0.00%     83.11% # Type of FU issued
system.cpu.iq.FU_type_0::SimdFloatCvt               0      0.00%     83.11% # Type of FU issued
system.cpu.iq.FU_type_0::SimdFloatDiv               0      0.00%     83.11% # Type of FU issued
system.cpu.iq.FU_type_0::SimdFloatMisc              0      0.00%     83.11% # Type of FU issued
system.cpu.iq.FU_type_0::SimdFloatMult              0      0.00%     83.11% # Type of FU issued
system.cpu.iq.FU_type_0::SimdFloatMultAcc            0      0.00%     83.11% # Type of FU issued
system.cpu.iq.FU_type_0::SimdFloatSqrt              0      0.00%     83.11% # Type of FU issued
system.cpu.iq.FU_type_0::MemRead               127318     10.92%     94.03% # Type of FU issued
system.cpu.iq.FU_type_0::MemWrite               64177      5.51%     99.54% # Type of FU issued
system.cpu.iq.FU_type_0::FloatMemRead            3320      0.28%     99.82% # Type of FU issued
system.cpu.iq.FU_type_0::FloatMemWrite           2088      0.18%    100.00% # Type of FU issued
system.cpu.iq.FU_type_0::IprAccess                  0      0.00%    100.00% # Type of FU issued
system.cpu.iq.FU_type_0::InstPrefetch               0      0.00%    100.00% # Type of FU issued
system.cpu.iq.FU_type_0::total                1165771                       # Type of FU issued
system.cpu.iq.rate                           1.589587                       # Inst issue rate
system.cpu.iq.fu_busy_cnt                       14732                       # FU busy when requested
system.cpu.iq.fu_busy_rate                   0.012637                       # FU busy rate (busy events/executed inst)
system.cpu.iq.int_inst_queue_reads            2917370                       # Number of integer instruction queue reads
system.cpu.iq.int_inst_queue_writes           2054834                       # Number of integer instruction queue writes
system.cpu.iq.int_inst_queue_wakeup_accesses      1080827                       # Number of integer instruction queue wakeup accesses
system.cpu.iq.fp_inst_queue_reads               31904                       # Number of floating instruction queue reads
system.cpu.iq.fp_inst_queue_writes              22827                       # Number of floating instruction queue writes
system.cpu.iq.fp_inst_queue_wakeup_accesses        13919                       # Number of floating instruction queue wakeup accesses
system.cpu.iq.vec_inst_queue_reads                  0                       # Number of vector instruction queue reads
system.cpu.iq.vec_inst_queue_writes                 0                       # Number of vector instruction queue writes
system.cpu.iq.vec_inst_queue_wakeup_accesses            0                       # Number of vector instruction queue wakeup accesses
system.cpu.iq.int_alu_accesses                1138846                       # Number of integer alu accesses
system.cpu.iq.fp_alu_accesses                   16139                       # Number of floating point alu accesses
system.cpu.iq.vec_alu_accesses                      0                       # Number of vector alu accesses
system.cpu.iq.instsSetReady                   1173030                       # Number of instructions added to ready list
system.cpu.iq.instsStalledBeforeSetReady            0                       # Number of instructions stalled before being added to ready list
system.cpu.iew.lsq.thread0.forwLoads            13462                       # Number of loads that had data forwarded from stores
system.cpu.iew.lsq.thread0.taintedforwLoads         1477                       # Number of tainted loads that had data forwarded from stores
system.cpu.iew.lsq.thread0.invAddrLoads             0                       # Number of loads ignored due to an invalid address
system.cpu.iew.lsq.thread0.squashedLoads        71361                       # Number of loads squashed
system.cpu.iew.lsq.thread0.ignoredResponses          226                       # Number of memory responses ignored because the instruction is squashed
system.cpu.iew.lsq.thread0.memOrderViolation          172                       # Number of memory ordering violations
system.cpu.iew.lsq.thread0.squashedStores        41034                       # Number of stores squashed
system.cpu.iew.lsq.thread0.invAddrSwpfs             0                       # Number of software prefetches ignored due to an invalid address
system.cpu.iew.lsq.thread0.blockedLoads             0                       # Number of blocked loads due to partial load-store forwarding
system.cpu.iew.lsq.thread0.rescheduledLoads           39                       # Number of loads that were rescheduled
system.cpu.iew.lsq.thread0.cacheBlocked            79                       # Number of times an access to memory failed due to the cache being blocked
system.cpu.iew.lsq.thread0.specBuffHits             0                       # Number of times an access hits in speculative buffer
system.cpu.iew.lsq.thread0.specBuffMisses            0                       # Number of times an access misses in speculative buffer
system.cpu.iew.lsq.thread0.numValidates             0                       # Number of validates sent to cache
system.cpu.iew.lsq.thread0.numExposes               0                       # Number of exposes sent to cache
system.cpu.iew.lsq.thread0.numConvertedExposes            0                       # Number of exposes converted from validation
system.cpu.iew.iewIdleCycles                        0                       # Number of cycles IEW is idle
system.cpu.iew.iewSquashCycles                  19740                       # Number of cycles IEW is squashing
system.cpu.iew.iewBlockCycles                   82542                       # Number of cycles IEW is blocking
system.cpu.iew.iewUnblockCycles                  7534                       # Number of cycles IEW is unblocking
system.cpu.iew.iewDispatchedInsts             1390562                       # Number of instructions dispatched to IQ
system.cpu.iew.iewDispSquashedInsts              1038                       # Number of squashed instructions skipped by dispatch
system.cpu.iew.iewDispLoadInsts                143261                       # Number of dispatched load instructions
system.cpu.iew.iewDispStoreInsts                85660                       # Number of dispatched store instructions
system.cpu.iew.iewDispNonSpecInsts                289                       # Number of dispatched non-speculative instructions
system.cpu.iew.iewIQFullEvents                     56                       # Number of times the IQ has become full, causing a stall
system.cpu.iew.iewLSQFullEvents                  7466                       # Number of times the LSQ has become full, causing a stall
system.cpu.iew.memOrderViolationEvents            172                       # Number of memory order violations
system.cpu.iew.predictedTakenIncorrect           5908                       # Number of branches that were predicted taken incorrectly
system.cpu.iew.predictedNotTakenIncorrect        20686                       # Number of branches that were predicted not taken incorrectly
system.cpu.iew.branchMispredicts                26594                       # Number of branch mispredicts detected at execute
system.cpu.iew.iewExecutedInsts               1112197                       # Number of executed instructions
system.cpu.iew.iewExecLoadInsts                117653                       # Number of load instructions executed
system.cpu.iew.iewExecSquashedInsts             47443                       # Number of squashed instructions skipped in execute
system.cpu.iew.exec_swp                             0                       # number of swp insts executed
system.cpu.iew.exec_nop                             0                       # number of nop insts executed
system.cpu.iew.exec_refs                       180060                       # number of memory reference insts executed
system.cpu.iew.exec_branches                   105408                       # Number of branches executed
system.cpu.iew.exec_stores                      62407                       # Number of stores executed
system.cpu.iew.exec_rate                     1.516536                       # Inst execution rate
system.cpu.iew.wb_sent                        1102652                       # cumulative count of insts sent to commit
system.cpu.iew.wb_count                       1094746                       # cumulative count of insts written-back
system.cpu.iew.wb_producers                    806895                       # num instructions producing a value
system.cpu.iew.wb_consumers                   1293455                       # num instructions consuming a value
system.cpu.iew.wb_rate                       1.492740                       # insts written-back per cycle
system.cpu.iew.wb_fanout                     0.623829                       # average fanout of values written-back
system.cpu.commit.commitSquashedInsts          687022                       # The number of squashed insts skipped by commit
system.cpu.commit.commitNonSpecStalls              72                       # The number of times commit has been forced to stall to communicate backwards
system.cpu.commit.branchMispredicts             19633                       # The number of times a branch was mispredicted
system.cpu.commit.memoryViolations                106                       # The number of times a memory operation(load) has violation
system.cpu.commit.stalledBranchMispredicts         2292                       # The number of times a branch misprediction is stalled(STT)
system.cpu.commit.stalledMemoryViolations            0                       # The number of times a memory violation is stalled(STT)
system.cpu.commit.loadHitInvalidations              0                       # The number of times a load hits a invalidation
system.cpu.commit.loadHitExternalEvictions            0                       # The number of times a load hits an external invalidation
system.cpu.commit.loadValidationFails               0                       # The number of times a load fails validation
system.cpu.commit.validationStalls                  0                       # The number of ticks the commit is stalled due to waiting for validation responses
system.cpu.commit.committed_per_cycle::samples       496495                       # Number of insts commited each cycle
system.cpu.commit.committed_per_cycle::mean     1.417152                       # Number of insts commited each cycle
system.cpu.commit.committed_per_cycle::stdev     2.221504                       # Number of insts commited each cycle
system.cpu.commit.committed_per_cycle::underflows            0      0.00%      0.00% # Number of insts commited each cycle
system.cpu.commit.committed_per_cycle::0       267044     53.79%     53.79% # Number of insts commited each cycle
system.cpu.commit.committed_per_cycle::1        79432     16.00%     69.78% # Number of insts commited each cycle
system.cpu.commit.committed_per_cycle::2        48631      9.79%     79.58% # Number of insts commited each cycle
system.cpu.commit.committed_per_cycle::3        33593      6.77%     86.35% # Number of insts commited each cycle
system.cpu.commit.committed_per_cycle::4        16801      3.38%     89.73% # Number of insts commited each cycle
system.cpu.commit.committed_per_cycle::5        10334      2.08%     91.81% # Number of insts commited each cycle
system.cpu.commit.committed_per_cycle::6         5965      1.20%     93.01% # Number of insts commited each cycle
system.cpu.commit.committed_per_cycle::7         6088      1.23%     94.24% # Number of insts commited each cycle
system.cpu.commit.committed_per_cycle::8        28607      5.76%    100.00% # Number of insts commited each cycle
system.cpu.commit.committed_per_cycle::overflows            0      0.00%    100.00% # Number of insts commited each cycle
system.cpu.commit.committed_per_cycle::min_value            0                       # Number of insts commited each cycle
system.cpu.commit.committed_per_cycle::max_value            8                       # Number of insts commited each cycle
system.cpu.commit.committed_per_cycle::total       496495                       # Number of insts commited each cycle
system.cpu.commit.committedInsts               408314                       # Number of instructions committed
system.cpu.commit.committedOps                 703609                       # Number of ops (including micro ops) committed
system.cpu.commit.swp_count                         0                       # Number of s/w prefetches committed
system.cpu.commit.refs                         116526                       # Number of memory references committed
system.cpu.commit.loads                         71900                       # Number of loads committed
system.cpu.commit.membars                           0                       # Number of memory barriers committed
system.cpu.commit.branches                      71934                       # Number of branches committed
system.cpu.commit.vec_insts                         0                       # Number of committed Vector instructions.
system.cpu.commit.fp_insts                      12615                       # Number of committed floating point instructions.
system.cpu.commit.int_insts                    687055                       # Number of committed integer instructions.
system.cpu.commit.function_calls                 5497                       # Number of function calls committed.
system.cpu.commit.op_class_0::No_OpClass         8326      1.18%      1.18% # Class of committed instruction
system.cpu.commit.op_class_0::IntAlu           568004     80.73%     81.91% # Class of committed instruction
system.cpu.commit.op_class_0::IntMult            2633      0.37%     82.28% # Class of committed instruction
system.cpu.commit.op_class_0::IntDiv              827      0.12%     82.40% # Class of committed instruction
system.cpu.commit.op_class_0::FloatAdd           7293      1.04%     83.44% # Class of committed instruction
system.cpu.commit.op_class_0::FloatCmp              0      0.00%     83.44% # Class of committed instruction
system.cpu.commit.op_class_0::FloatCvt              0      0.00%     83.44% # Class of committed instruction
system.cpu.commit.op_class_0::FloatMult             0      0.00%     83.44% # Class of committed instruction
system.cpu.commit.op_class_0::FloatMultAcc            0      0.00%     83.44% # Class of committed instruction
system.cpu.commit.op_class_0::FloatDiv              0      0.00%     83.44% # Class of committed instruction
system.cpu.commit.op_class_0::FloatMisc             0      0.00%     83.44% # Class of committed instruction
system.cpu.commit.op_class_0::FloatSqrt             0      0.00%     83.44% # Class of committed instruction
system.cpu.commit.op_class_0::SimdAdd               0      0.00%     83.44% # Class of committed instruction
system.cpu.commit.op_class_0::SimdAddAcc            0      0.00%     83.44% # Class of committed instruction
system.cpu.commit.op_class_0::SimdAlu               0      0.00%     83.44% # Class of committed instruction
system.cpu.commit.op_class_0::SimdCmp               0      0.00%     83.44% # Class of committed instruction
system.cpu.commit.op_class_0::SimdCvt               0      0.00%     83.44% # Class of committed instruction
system.cpu.commit.op_class_0::SimdMisc              0      0.00%     83.44% # Class of committed instruction
system.cpu.commit.op_class_0::SimdMult              0      0.00%     83.44% # Class of committed instruction
system.cpu.commit.op_class_0::SimdMultAcc            0      0.00%     83.44% # Class of committed instruction
system.cpu.commit.op_class_0::SimdShift             0      0.00%     83.44% # Class of committed instruction
system.cpu.commit.op_class_0::SimdShiftAcc            0      0.00%     83.44% # Class of committed instruction
system.cpu.commit.op_class_0::SimdSqrt              0      0.00%     83.44% # Class of committed instruction
system.cpu.commit.op_class_0::SimdFloatAdd            0      0.00%     83.44% # Class of committed instruction
system.cpu.commit.op_class_0::SimdFloatAlu            0      0.00%     83.44% # Class of committed instruction
system.cpu.commit.op_class_0::SimdFloatCmp            0      0.00%     83.44% # Class of committed instruction
system.cpu.commit.op_class_0::SimdFloatCvt            0      0.00%     83.44% # Class of committed instruction
system.cpu.commit.op_class_0::SimdFloatDiv            0      0.00%     83.44% # Class of committed instruction
system.cpu.commit.op_class_0::SimdFloatMisc            0      0.00%     83.44% # Class of committed instruction
system.cpu.commit.op_class_0::SimdFloatMult            0      0.00%     83.44% # Class of committed instruction
system.cpu.commit.op_class_0::SimdFloatMultAcc            0      0.00%     83.44% # Class of committed instruction
system.cpu.commit.op_class_0::SimdFloatSqrt            0      0.00%     83.44% # Class of committed instruction
system.cpu.commit.op_class_0::MemRead           69991      9.95%     93.39% # Class of committed instruction
system.cpu.commit.op_class_0::MemWrite          43059      6.12%     99.51% # Class of committed instruction
system.cpu.commit.op_class_0::FloatMemRead         1909      0.27%     99.78% # Class of committed instruction
system.cpu.commit.op_class_0::FloatMemWrite         1567      0.22%    100.00% # Class of committed instruction
system.cpu.commit.op_class_0::IprAccess             0      0.00%    100.00% # Class of committed instruction
system.cpu.commit.op_class_0::InstPrefetch            0      0.00%    100.00% # Class of committed instruction
system.cpu.commit.op_class_0::total            703609                       # Class of committed instruction
system.cpu.commit.bw_lim_events                 28607                       # number cycles where commit BW limit reached
system.cpu.rob.rob_reads                      1858519                       # The number of ROB reads
system.cpu.rob.rob_writes                     2881952                       # The number of ROB writes
system.cpu.timesIdled                            1487                       # Number of times that the entire CPU went into an idle state and unscheduled itself
system.cpu.idleCycles                          137639                       # Total number of cycles that the CPU has spent unscheduled due to idling
system.cpu.committedInsts                      408314                       # Number of Instructions Simulated
system.cpu.committedOps                        703609                       # Number of Ops (including micro ops) Simulated
system.cpu.cpi                               1.796118                       # CPI: Cycles Per Instruction
system.cpu.cpi_total                         1.796118                       # CPI: Total CPI of All Threads
system.cpu.ipc                               0.556756                       # IPC: Instructions Per Cycle
system.cpu.ipc_total                         0.556756                       # IPC: Total IPC of All Threads
system.cpu.int_regfile_reads                  1505789                       # number of integer regfile reads
system.cpu.int_regfile_writes                  903869                       # number of integer regfile writes
system.cpu.fp_regfile_reads                     21017                       # number of floating regfile reads
system.cpu.fp_regfile_writes                    11561                       # number of floating regfile writes
system.cpu.cc_regfile_reads                    513384                       # number of cc regfile reads
system.cpu.cc_regfile_writes                   453351                       # number of cc regfile writes
system.cpu.misc_regfile_reads                  421843                       # number of misc regfile reads
system.cpu.dcache.tags.pwrStateResidencyTicks::UNDEFINED    366689500                       # Cumulative time (in ticks) in various power states
system.cpu.dcache.tags.replacements               194                       # number of replacements
system.cpu.dcache.tags.tagsinuse           558.269860                       # Cycle average of tags in use
system.cpu.dcache.tags.total_refs               10006                       # Total number of references to valid blocks.
system.cpu.dcache.tags.sampled_refs               194                       # Sample count of references to valid blocks.
system.cpu.dcache.tags.avg_refs             51.577320                       # Average number of references to valid blocks.
system.cpu.dcache.tags.warmup_cycle            176500                       # Cycle when the warmup percentage was hit.
system.cpu.dcache.tags.occ_blocks::cpu.data   558.269860                       # Average occupied blocks per requestor
system.cpu.dcache.tags.occ_percent::cpu.data     0.545185                       # Average percentage of cache occupancy
system.cpu.dcache.tags.occ_percent::total     0.545185                       # Average percentage of cache occupancy
system.cpu.dcache.tags.occ_task_id_blocks::1024          771                       # Occupied blocks per task id
system.cpu.dcache.tags.age_task_id_blocks_1024::0           30                       # Occupied blocks per task id
system.cpu.dcache.tags.age_task_id_blocks_1024::1           68                       # Occupied blocks per task id
system.cpu.dcache.tags.age_task_id_blocks_1024::2          673                       # Occupied blocks per task id
system.cpu.dcache.tags.occ_task_id_percent::1024     0.752930                       # Percentage of cache occupancy per task id
system.cpu.dcache.tags.tag_accesses            311803                       # Number of tag accesses
system.cpu.dcache.tags.data_accesses           311803                       # Number of data accesses
system.cpu.dcache.pwrStateResidencyTicks::UNDEFINED    366689500                       # Cumulative time (in ticks) in various power states
system.cpu.dcache.ReadReq_hits::cpu.data       109894                       # number of ReadReq hits
system.cpu.dcache.ReadReq_hits::total          109894                       # number of ReadReq hits
system.cpu.dcache.WriteReq_hits::cpu.data        44093                       # number of WriteReq hits
system.cpu.dcache.WriteReq_hits::total          44093                       # number of WriteReq hits
system.cpu.dcache.demand_hits::cpu.data        153987                       # number of demand (read+write) hits
system.cpu.dcache.demand_hits::total           153987                       # number of demand (read+write) hits
system.cpu.dcache.overall_hits::cpu.data       153987                       # number of overall hits
system.cpu.dcache.overall_hits::total          153987                       # number of overall hits
system.cpu.dcache.ReadReq_misses::cpu.data          857                       # number of ReadReq misses
system.cpu.dcache.ReadReq_misses::total           857                       # number of ReadReq misses
system.cpu.dcache.WriteReq_misses::cpu.data          575                       # number of WriteReq misses
system.cpu.dcache.WriteReq_misses::total          575                       # number of WriteReq misses
system.cpu.dcache.demand_misses::cpu.data         1432                       # number of demand (read+write) misses
system.cpu.dcache.demand_misses::total           1432                       # number of demand (read+write) misses
system.cpu.dcache.overall_misses::cpu.data         1432                       # number of overall misses
system.cpu.dcache.overall_misses::total          1432                       # number of overall misses
system.cpu.dcache.ReadReq_miss_latency::cpu.data     71943000                       # number of ReadReq miss cycles
system.cpu.dcache.ReadReq_miss_latency::total     71943000                       # number of ReadReq miss cycles
system.cpu.dcache.WriteReq_miss_latency::cpu.data     48645499                       # number of WriteReq miss cycles
system.cpu.dcache.WriteReq_miss_latency::total     48645499                       # number of WriteReq miss cycles
system.cpu.dcache.demand_miss_latency::cpu.data    120588499                       # number of demand (read+write) miss cycles
system.cpu.dcache.demand_miss_latency::total    120588499                       # number of demand (read+write) miss cycles
system.cpu.dcache.overall_miss_latency::cpu.data    120588499                       # number of overall miss cycles
system.cpu.dcache.overall_miss_latency::total    120588499                       # number of overall miss cycles
system.cpu.dcache.ReadReq_accesses::cpu.data       110751                       # number of ReadReq accesses(hits+misses)
system.cpu.dcache.ReadReq_accesses::total       110751                       # number of ReadReq accesses(hits+misses)
system.cpu.dcache.WriteReq_accesses::cpu.data        44668                       # number of WriteReq accesses(hits+misses)
system.cpu.dcache.WriteReq_accesses::total        44668                       # number of WriteReq accesses(hits+misses)
system.cpu.dcache.demand_accesses::cpu.data       155419                       # number of demand (read+write) accesses
system.cpu.dcache.demand_accesses::total       155419                       # number of demand (read+write) accesses
system.cpu.dcache.overall_accesses::cpu.data       155419                       # number of overall (read+write) accesses
system.cpu.dcache.overall_accesses::total       155419                       # number of overall (read+write) accesses
system.cpu.dcache.ReadReq_miss_rate::cpu.data     0.007738                       # miss rate for ReadReq accesses
system.cpu.dcache.ReadReq_miss_rate::total     0.007738                       # miss rate for ReadReq accesses
system.cpu.dcache.WriteReq_miss_rate::cpu.data     0.012873                       # miss rate for WriteReq accesses
system.cpu.dcache.WriteReq_miss_rate::total     0.012873                       # miss rate for WriteReq accesses
system.cpu.dcache.demand_miss_rate::cpu.data     0.009214                       # miss rate for demand accesses
system.cpu.dcache.demand_miss_rate::total     0.009214                       # miss rate for demand accesses
system.cpu.dcache.overall_miss_rate::cpu.data     0.009214                       # miss rate for overall accesses
system.cpu.dcache.overall_miss_rate::total     0.009214                       # miss rate for overall accesses
system.cpu.dcache.ReadReq_avg_miss_latency::cpu.data 83947.491249                       # average ReadReq miss latency
system.cpu.dcache.ReadReq_avg_miss_latency::total 83947.491249                       # average ReadReq miss latency
system.cpu.dcache.WriteReq_avg_miss_latency::cpu.data 84600.867826                       # average WriteReq miss latency
system.cpu.dcache.WriteReq_avg_miss_latency::total 84600.867826                       # average WriteReq miss latency
system.cpu.dcache.demand_avg_miss_latency::cpu.data 84209.845670                       # average overall miss latency
system.cpu.dcache.demand_avg_miss_latency::total 84209.845670                       # average overall miss latency
system.cpu.dcache.overall_avg_miss_latency::cpu.data 84209.845670                       # average overall miss latency
system.cpu.dcache.overall_avg_miss_latency::total 84209.845670                       # average overall miss latency
system.cpu.dcache.blocked_cycles::no_mshrs          798                       # number of cycles access was blocked
[...]
system.l2.WritebackClean_accesses::writebacks         2908                       # number of WritebackClean accesses(hits+misses)
system.l2.WritebackClean_accesses::total         2908                       # number of WritebackClean accesses(hits+misses)
system.l2.ReadExReq_accesses::cpu.data            571                       # number of ReadExReq accesses(hits+misses)
system.l2.ReadExReq_accesses::total               571                       # number of ReadExReq accesses(hits+misses)
system.l2.ReadCleanReq_accesses::cpu.inst         3421                       # number of ReadCleanReq accesses(hits+misses)
system.l2.ReadCleanReq_accesses::total           3421                       # number of ReadCleanReq accesses(hits+misses)
system.l2.ReadSharedReq_accesses::cpu.data          394                       # number of ReadSharedReq accesses(hits+misses)
system.l2.ReadSharedReq_accesses::total           394                       # number of ReadSharedReq accesses(hits+misses)
system.l2.demand_accesses::cpu.inst              3421                       # number of demand (read+write) accesses
system.l2.demand_accesses::cpu.data               965                       # number of demand (read+write) accesses
system.l2.demand_accesses::total                 4386                       # number of demand (read+write) accesses
system.l2.overall_accesses::cpu.inst             3421                       # number of overall (read+write) accesses
system.l2.overall_accesses::cpu.data              965                       # number of overall (read+write) accesses
system.l2.overall_accesses::total                4386                       # number of overall (read+write) accesses
system.l2.ReadExReq_miss_rate::cpu.data      0.987741                       # miss rate for ReadExReq accesses
system.l2.ReadExReq_miss_rate::total         0.987741                       # miss rate for ReadExReq accesses
system.l2.ReadCleanReq_miss_rate::cpu.inst     0.577317                       # miss rate for ReadCleanReq accesses
system.l2.ReadCleanReq_miss_rate::total      0.577317                       # miss rate for ReadCleanReq accesses
system.l2.ReadSharedReq_miss_rate::cpu.data     0.829949                       # miss rate for ReadSharedReq accesses
system.l2.ReadSharedReq_miss_rate::total     0.829949                       # miss rate for ReadSharedReq accesses
system.l2.demand_miss_rate::cpu.inst         0.577317                       # miss rate for demand accesses
system.l2.demand_miss_rate::cpu.data         0.923316                       # miss rate for demand accesses
system.l2.demand_miss_rate::total            0.653443                       # miss rate for demand accesses
system.l2.overall_miss_rate::cpu.inst        0.577317                       # miss rate for overall accesses
system.l2.overall_miss_rate::cpu.data        0.923316                       # miss rate for overall accesses
system.l2.overall_miss_rate::total           0.653443                       # miss rate for overall accesses
system.l2.ReadExReq_avg_miss_latency::cpu.data 83186.170213                       # average ReadExReq miss latency
system.l2.ReadExReq_avg_miss_latency::total 83186.170213                       # average ReadExReq miss latency
system.l2.ReadCleanReq_avg_miss_latency::cpu.inst 85757.721519                       # average ReadCleanReq miss latency
system.l2.ReadCleanReq_avg_miss_latency::total 85757.721519                       # average ReadCleanReq miss latency
system.l2.ReadSharedReq_avg_miss_latency::cpu.data 92581.039755                       # average ReadSharedReq miss latency
system.l2.ReadSharedReq_avg_miss_latency::total 92581.039755                       # average ReadSharedReq miss latency
system.l2.demand_avg_miss_latency::cpu.inst 85757.721519                       # average overall miss latency
system.l2.demand_avg_miss_latency::cpu.data 86634.118967                       # average overall miss latency
system.l2.demand_avg_miss_latency::total 86030.181438                       # average overall miss latency
system.l2.overall_avg_miss_latency::cpu.inst 85757.721519                       # average overall miss latency
system.l2.overall_avg_miss_latency::cpu.data 86634.118967                       # average overall miss latency
system.l2.overall_avg_miss_latency::total 86030.181438                       # average overall miss latency
system.l2.blocked_cycles::no_mshrs                  0                       # number of cycles access was blocked
system.l2.blocked_cycles::no_targets                0                       # number of cycles access was blocked
system.l2.blocked::no_mshrs                         0                       # number of cycles access was blocked
system.l2.blocked::no_targets                       0                       # number of cycles access was blocked
system.l2.avg_blocked_cycles::no_mshrs            nan                       # average number of cycles each access was blocked
system.l2.avg_blocked_cycles::no_targets          nan                       # average number of cycles each access was blocked
system.l2.ReadExReq_mshr_misses::cpu.data          564                       # number of ReadExReq MSHR misses
system.l2.ReadExReq_mshr_misses::total            564                       # number of ReadExReq MSHR misses
system.l2.ReadCleanReq_mshr_misses::cpu.inst         1975                       # number of ReadCleanReq MSHR misses
system.l2.ReadCleanReq_mshr_misses::total         1975                       # number of ReadCleanReq MSHR misses
system.l2.ReadSharedReq_mshr_misses::cpu.data          327                       # number of ReadSharedReq MSHR misses
system.l2.ReadSharedReq_mshr_misses::total          327                       # number of ReadSharedReq MSHR misses
system.l2.demand_mshr_misses::cpu.inst           1975                       # number of demand (read+write) MSHR misses
system.l2.demand_mshr_misses::cpu.data            891                       # number of demand (read+write) MSHR misses
system.l2.demand_mshr_misses::total              2866                       # number of demand (read+write) MSHR misses
system.l2.overall_mshr_misses::cpu.inst          1975                       # number of overall MSHR misses
system.l2.overall_mshr_misses::cpu.data           891                       # number of overall MSHR misses
system.l2.overall_mshr_misses::total             2866                       # number of overall MSHR misses
system.l2.ReadExReq_mshr_miss_latency::cpu.data     41277000                       # number of ReadExReq MSHR miss cycles
system.l2.ReadExReq_mshr_miss_latency::total     41277000                       # number of ReadExReq MSHR miss cycles
system.l2.ReadCleanReq_mshr_miss_latency::cpu.inst    149631500                       # number of ReadCleanReq MSHR miss cycles
system.l2.ReadCleanReq_mshr_miss_latency::total    149631500                       # number of ReadCleanReq MSHR miss cycles
system.l2.ReadSharedReq_mshr_miss_latency::cpu.data     27004000                       # number of ReadSharedReq MSHR miss cycles
system.l2.ReadSharedReq_mshr_miss_latency::total     27004000                       # number of ReadSharedReq MSHR miss cycles
system.l2.demand_mshr_miss_latency::cpu.inst    149631500                       # number of demand (read+write) MSHR miss cycles
system.l2.demand_mshr_miss_latency::cpu.data     68281000                       # number of demand (read+write) MSHR miss cycles
system.l2.demand_mshr_miss_latency::total    217912500                       # number of demand (read+write) MSHR miss cycles
system.l2.overall_mshr_miss_latency::cpu.inst    149631500                       # number of overall MSHR miss cycles
system.l2.overall_mshr_miss_latency::cpu.data     68281000                       # number of overall MSHR miss cycles
system.l2.overall_mshr_miss_latency::total    217912500                       # number of overall MSHR miss cycles
system.l2.ReadExReq_mshr_miss_rate::cpu.data     0.987741                       # mshr miss rate for ReadExReq accesses
system.l2.ReadExReq_mshr_miss_rate::total     0.987741                       # mshr miss rate for ReadExReq accesses
system.l2.ReadCleanReq_mshr_miss_rate::cpu.inst     0.577317                       # mshr miss rate for ReadCleanReq accesses
system.l2.ReadCleanReq_mshr_miss_rate::total     0.577317                       # mshr miss rate for ReadCleanReq accesses
system.l2.ReadSharedReq_mshr_miss_rate::cpu.data     0.829949                       # mshr miss rate for ReadSharedReq accesses
system.l2.ReadSharedReq_mshr_miss_rate::total     0.829949                       # mshr miss rate for ReadSharedReq accesses
system.l2.demand_mshr_miss_rate::cpu.inst     0.577317                       # mshr miss rate for demand accesses
system.l2.demand_mshr_miss_rate::cpu.data     0.923316                       # mshr miss rate for demand accesses
system.l2.demand_mshr_miss_rate::total       0.653443                       # mshr miss rate for demand accesses
system.l2.overall_mshr_miss_rate::cpu.inst     0.577317                       # mshr miss rate for overall accesses
system.l2.overall_mshr_miss_rate::cpu.data     0.923316                       # mshr miss rate for overall accesses
system.l2.overall_mshr_miss_rate::total      0.653443                       # mshr miss rate for overall accesses
system.l2.ReadExReq_avg_mshr_miss_latency::cpu.data 73186.170213                       # average ReadExReq mshr miss latency
system.l2.ReadExReq_avg_mshr_miss_latency::total 73186.170213                       # average ReadExReq mshr miss latency
system.l2.ReadCleanReq_avg_mshr_miss_latency::cpu.inst 75762.784810                       # average ReadCleanReq mshr miss latency
system.l2.ReadCleanReq_avg_mshr_miss_latency::total 75762.784810                       # average ReadCleanReq mshr miss latency
system.l2.ReadSharedReq_avg_mshr_miss_latency::cpu.data 82581.039755                       # average ReadSharedReq mshr miss latency
system.l2.ReadSharedReq_avg_mshr_miss_latency::total 82581.039755                       # average ReadSharedReq mshr miss latency
system.l2.demand_avg_mshr_miss_latency::cpu.inst 75762.784810                       # average overall mshr miss latency
system.l2.demand_avg_mshr_miss_latency::cpu.data 76634.118967                       # average overall mshr miss latency
system.l2.demand_avg_mshr_miss_latency::total 76033.670621                       # average overall mshr miss latency
system.l2.overall_avg_mshr_miss_latency::cpu.inst 75762.784810                       # average overall mshr miss latency
system.l2.overall_avg_mshr_miss_latency::cpu.data 76634.118967                       # average overall mshr miss latency
system.l2.overall_avg_mshr_miss_latency::total 76033.670621                       # average overall mshr miss latency
system.membus.snoop_filter.tot_requests          2865                       # Total number of requests made to the snoop filter.
system.membus.snoop_filter.hit_single_requests            0                       # Number of requests hitting in the snoop filter with a single holder of the requested data.
system.membus.snoop_filter.hit_multi_requests            0                       # Number of requests hitting in the snoop filter with multiple (>1) holders of the requested data.
system.membus.snoop_filter.tot_snoops               0                       # Total number of snoops made to the snoop filter.
system.membus.snoop_filter.hit_single_snoops            0                       # Number of snoops hitting in the snoop filter with a single holder of the requested data.
system.membus.snoop_filter.hit_multi_snoops            0                       # Number of snoops hitting in the snoop filter with multiple (>1) holders of the requested data.
system.membus.pwrStateResidencyTicks::UNDEFINED    366689500                       # Cumulative time (in ticks) in various power states
system.membus.trans_dist::ReadResp               2301                       # Transaction distribution
system.membus.trans_dist::ReadExReq               564                       # Transaction distribution
system.membus.trans_dist::ReadExResp              564                       # Transaction distribution
system.membus.trans_dist::ReadSharedReq          2301                       # Transaction distribution
system.membus.pkt_count_system.l2.mem_side::system.mem_ctrls.port         5730                       # Packet count per connected master and slave (bytes)
system.membus.pkt_count_system.l2.mem_side::total         5730                       # Packet count per connected master and slave (bytes)
system.membus.pkt_count::total                   5730                       # Packet count per connected master and slave (bytes)
system.membus.pkt_size_system.l2.mem_side::system.mem_ctrls.port       183360                       # Cumulative packet size per connected master and slave (bytes)
system.membus.pkt_size_system.l2.mem_side::total       183360                       # Cumulative packet size per connected master and slave (bytes)
system.membus.pkt_size::total                  183360                       # Cumulative packet size per connected master and slave (bytes)
system.membus.snoops                                0                       # Total snoops (count)
system.membus.snoopTraffic                          0                       # Total snoop traffic (bytes)
system.membus.snoop_fanout::samples              2865                       # Request fanout histogram
system.membus.snoop_fanout::mean                    0                       # Request fanout histogram
system.membus.snoop_fanout::stdev                   0                       # Request fanout histogram
system.membus.snoop_fanout::underflows              0      0.00%      0.00% # Request fanout histogram
system.membus.snoop_fanout::0                    2865    100.00%    100.00% # Request fanout histogram
system.membus.snoop_fanout::1                       0      0.00%    100.00% # Request fanout histogram
system.membus.snoop_fanout::overflows               0      0.00%    100.00% # Request fanout histogram
system.membus.snoop_fanout::min_value               0                       # Request fanout histogram
system.membus.snoop_fanout::max_value               0                       # Request fanout histogram
system.membus.snoop_fanout::total                2865                       # Request fanout histogram
system.membus.reqLayer2.occupancy             3519500                       # Layer occupancy (ticks)
system.membus.reqLayer2.utilization               1.0                       # Layer utilization (%)
system.membus.respLayer1.occupancy           15209750                       # Layer occupancy (ticks)
system.membus.respLayer1.utilization              4.1                       # Layer utilization (%)
system.tol2bus.snoop_filter.tot_requests         7488                       # Total number of requests made to the snoop filter.
system.tol2bus.snoop_filter.hit_single_requests         3103                       # Number of requests hitting in the snoop filter with a single holder of the requested data.
system.tol2bus.snoop_filter.hit_multi_requests            1                       # Number of requests hitting in the snoop filter with multiple (>1) holders of the requested data.
system.tol2bus.snoop_filter.tot_snoops              0                       # Total number of snoops made to the snoop filter.
system.tol2bus.snoop_filter.hit_single_snoops            0                       # Number of snoops hitting in the snoop filter with a single holder of the requested data.
system.tol2bus.snoop_filter.hit_multi_snoops            0                       # Number of snoops hitting in the snoop filter with multiple (>1) holders of the requested data.
system.tol2bus.pwrStateResidencyTicks::UNDEFINED    366689500                       # Cumulative time (in ticks) in various power states
system.tol2bus.trans_dist::ReadResp              3814                       # Transaction distribution
system.tol2bus.trans_dist::WritebackDirty           85                       # Transaction distribution
system.tol2bus.trans_dist::WritebackClean         2908                       # Transaction distribution
system.tol2bus.trans_dist::CleanEvict             109                       # Transaction distribution
system.tol2bus.trans_dist::ReadExReq              571                       # Transaction distribution
system.tol2bus.trans_dist::ReadExResp             571                       # Transaction distribution
system.tol2bus.trans_dist::ReadCleanReq          3421                       # Transaction distribution
system.tol2bus.trans_dist::ReadSharedReq          394                       # Transaction distribution
system.tol2bus.pkt_count_system.cpu.icache.mem_side::system.l2.cpu_side         9749                       # Packet count per connected master and slave (bytes)
system.tol2bus.pkt_count_system.cpu.dcache.mem_side::system.l2.cpu_side         2124                       # Packet count per connected master and slave (bytes)
system.tol2bus.pkt_count::total                 11873                       # Packet count per connected master and slave (bytes)
system.tol2bus.pkt_size_system.cpu.icache.mem_side::system.l2.cpu_side       404992                       # Cumulative packet size per connected master and slave (bytes)
system.tol2bus.pkt_size_system.cpu.dcache.mem_side::system.l2.cpu_side        67200                       # Cumulative packet size per connected master and slave (bytes)
system.tol2bus.pkt_size::total                 472192                       # Cumulative packet size per connected master and slave (bytes)
system.tol2bus.snoops                               0                       # Total snoops (count)
system.tol2bus.snoopTraffic                         0                       # Total snoop traffic (bytes)
system.tol2bus.snoop_fanout::samples             4386                       # Request fanout histogram
system.tol2bus.snoop_fanout::mean            0.000456                       # Request fanout histogram
system.tol2bus.snoop_fanout::stdev           0.021352                       # Request fanout histogram
system.tol2bus.snoop_fanout::underflows             0      0.00%      0.00% # Request fanout histogram
system.tol2bus.snoop_fanout::0                   4384     99.95%     99.95% # Request fanout histogram
system.tol2bus.snoop_fanout::1                      2      0.05%    100.00% # Request fanout histogram
system.tol2bus.snoop_fanout::2                      0      0.00%    100.00% # Request fanout histogram
system.tol2bus.snoop_fanout::3                      0      0.00%    100.00% # Request fanout histogram
system.tol2bus.snoop_fanout::4                      0      0.00%    100.00% # Request fanout histogram
system.tol2bus.snoop_fanout::overflows              0      0.00%    100.00% # Request fanout histogram
system.tol2bus.snoop_fanout::min_value              0                       # Request fanout histogram
system.tol2bus.snoop_fanout::max_value              1                       # Request fanout histogram
system.tol2bus.snoop_fanout::total               4386                       # Request fanout histogram
system.tol2bus.reqLayer0.occupancy            6737000                       # Layer occupancy (ticks)
system.tol2bus.reqLayer0.utilization              1.8                       # Layer utilization (%)
system.tol2bus.respLayer0.occupancy           5130000                       # Layer occupancy (ticks)
system.tol2bus.respLayer0.utilization             1.4                       # Layer utilization (%)
system.tol2bus.respLayer1.occupancy           1448997                       # Layer occupancy (ticks)
system.tol2bus.respLayer1.utilization             0.4                       # Layer utilization (%)

---------- End Simulation Statistics   ----------
